LAMMPS (2 Aug 2023 - Update 1)
units real
dimension 3
boundary p p p

atom_style full
pair_style lj/cut/coul/debye 0.1 24.1 15.0
bond_style harmonic
# angle_style harmonic
# dihedral_style quadratic
read_data polymer.data
Reading data file ...
  orthogonal box = (0 0 0) to (750 750 750)
  reading atoms ...
  140 atoms
  reading velocities ...
  140 velocities
  scanning bonds ...
  reading bonds ...
  139 bonds
Finding 1-2 1-3 1-4 neighbors ...
     2 = max # of 1-2 neighbors
     2 = max # of 1-3 neighbors
     4 = max # of 1-4 neighbors
     6 = max # of special neighbors

pair_coeff * * 2.5 3.80
dielectric 80.0

thermo 100
thermo_style custom step temp pe press vol lx density
dump mymindump all custom 10 dump.min.lammpstrj id x y z

# fix mynpt all npt temp 300.0 300.0 100.0 iso 0.0 0.0 10000.0
fix mynve all nve
fix rgfix all spring/rg 500.0 30
minimize 0 0 10000 10000
Generated 0 of 9730 mixed pair_coeff terms from geometric mixing rule
Step          Temp          PotEng         Press          Volume           Lx          Density
0   679755.49      3822.7279      30.07037       4.21875e+08    750            4.6917564e-05
Averages over the last 30 of 60 rows, steps 3000 to 5848:
Temp PotEng Press Volume Lx Density
679755 -535.68 30.5142 4.21875e+08 750 4.69176e-05
Loop time of 0.590081 on 1 procs for 5848 steps with 140 atoms

Minimization stats:
  Stopping criterion = max force evaluations
  Energy initial, next-to-last, final =
  Force two-norm initial, final = 16.323816 2.0155947e-11
  Force max component initial, final = 6.66417 1.8500756e-12
  Final line search alpha, max atom move = 1 1.8500756e-12
  Iterations, force evaluations = 5848 10000

undump mymindump
dump mydmp all custom 100 dump.lammpstrj id x y z

# replicate 3 3 4
# fix mydeform all deform 1 x final 0.0 2500.0 y final 0.0 2500.0 z final 0.0 2500.0 units box

# compute myRDF all rdf 50
# fix 1 all ave/time 100 1 100 c_myRDF[*] file tmp.rdf mode vector
fix mynve all nve
# fix mynpt all npt temp 300.0 300.0 100.0 iso 0.0 0.0 1000.0
fix mylgv all langevin 300.0 300.0 40 1321432
neigh_modify every 1 delay 5 check yes
timestep 0.005
run 100000
Generated 0 of 9730 mixed pair_coeff terms from geometric mixing rule
Step          Temp          PotEng         Press          Volume           Lx          Density
5848   679755.49     -551.81796      30.517636      4.21875e+08    750            4.6917564e-05
Averages over the last 501 of 1002 rows, steps 55900 to 105848:
Temp PotEng Press Volume Lx Density
5556.36 2917.61 -0.174689 4.21875e+08 750 4.69176e-05
Loop time of 5.89457 on 1 procs for 100000 steps with 140 atoms

unfix rgfix
undump mydmp
dump myfindmp all custom 100 dum.fin.lammpstrj id x y z
fix mynve all nve
fix mylgv all langevin 300.0 300.0 40 1321432
neigh_modify every 1 delay 5 check yes
timestep 0.005
run 100000
Generated 0 of 9730 mixed pair_coeff terms from geometric mixing rule
Step          Temp          PotEng         Press          Volume           Lx          Density
105848   4002.0475      1613.5139     -0.10217177     4.21875e+08    750            4.6917564e-05
Averages over the last 501 of 1002 rows, steps 155900 to 205848:
Temp PotEng Press Volume Lx Density
383.772 398.262 -0.159923 4.21875e+08 750 4.69176e-05
Loop time of 5.97024 on 1 procs for 100000 steps with 140 atoms

# write_data data.polymer
