LAMMPS (2 Aug 2023 - Update 1)
units real
dimension 3
boundary p p p

atom_style full
pair_style lj/cut/coul/debye 0.1 24.1 15.0
bond_style harmonic
# angle_style harmonic
# dihedral_style quadratic
read_data polymer.data
Reading data file ...
  orthogonal box = (0 0 0) to (750 750 750)
  reading atoms ...
  153 atoms
  reading velocities ...
  153 velocities
  scanning bonds ...
  reading bonds ...
  152 bonds
Finding 1-2 1-3 1-4 neighbors ...
     2 = max # of 1-2 neighbors
     2 = max # of 1-3 neighbors
     4 = max # of 1-4 neighbors
     6 = max # of special neighbors

pair_coeff * * 2.5 3.80
dielectric 80.0

thermo 100
thermo_style custom step temp pe press vol lx density
dump mymindump all custom 10 dump.min.lammpstrj id x y z

# fix mynpt all npt temp 300.0 300.0 100.0 iso 0.0 0.0 10000.0
fix mynve all nve
fix rgfix all spring/rg 1000.0 2
minimize 0 0 10000 10000
Generated 0 of 11628 mixed pair_coeff terms from geometric mixing rule
Step          Temp          PotEng         Press          Volume           Lx          Density
0   696265.94      1.9633585      34.17984       4.21875e+08    750            5.1286973e-05
Averages over the last 51 of 101 rows, steps 5000 to 10000:
Temp PotEng Press Volume Lx Density
696266 0.641498 34.181 4.21875e+08 750 5.1287e-05
Loop time of 0.247887 on 1 procs for 10000 steps with 153 atoms

Minimization stats:
  Stopping criterion = max force evaluations
  Energy initial, next-to-last, final =
  Force two-norm initial, final = 0.083777968 0.0078589946
  Force max component initial, final = 0.034202017 0.00052583522
  Final line search alpha, max atom move = 1 0.00052583522
  Iterations, force evaluations = 10000 10000

undump mymindump
dump mydmp all custom 100 dump.lammpstrj id x y z

# replicate 3 3 4
# fix mydeform all deform 1 x final 0.0 2500.0 y final 0.0 2500.0 z final 0.0 2500.0 units box

# compute myRDF all rdf 50
# fix 1 all ave/time 100 1 100 c_myRDF[*] file tmp.rdf mode vector
fix mynve all nve
# fix mynpt all npt temp 300.0 300.0 100.0 iso 0.0 0.0 1000.0
fix mylgv all langevin 300.0 300.0 40 1321432
neigh_modify every 1 delay 5 check yes
timestep 0.005
run 100000
Generated 0 of 11628 mixed pair_coeff terms from geometric mixing rule
Step          Temp          PotEng         Press          Volume           Lx          Density
10000   696265.94      0.45287047     34.18122       4.21875e+08    750            5.1286973e-05
Averages over the last 501 of 1001 rows, steps 60000 to 110000:
Temp PotEng Press Volume Lx Density
2.13995e+06 -23.0977 105.07 4.21875e+08 750 5.1287e-05
Loop time of 2.90352 on 1 procs for 100000 steps with 153 atoms

unfix rgfix
fix mynve all nve
fix mylgv all langevin 300.0 300.0 40 1321432
neigh_modify every 1 delay 5 check yes
timestep 0.005
run 100000
Generated 0 of 11628 mixed pair_coeff terms from geometric mixing rule
Step          Temp          PotEng         Press          Volume           Lx          Density
110000   952251.17     -102.60129      46.822482      4.21875e+08    750            5.1286973e-05
Averages over the last 501 of 1001 rows, steps 160000 to 210000:
Temp PotEng Press Volume Lx Density
308.889 -351.899 -0.0420565 4.21875e+08 750 5.1287e-05
Loop time of 4.98941 on 1 procs for 100000 steps with 153 atoms

# write_data data.polymer
