LAMMPS (2 Aug 2023 - Update 1)
units real
dimension 3
boundary p p p

atom_style full
pair_style lj/cut/coul/debye 0.1 24.1 15.0
bond_style harmonic
angle_style harmonic
dihedral_style quadratic
read_data polymer.data
Reading data file ...
  orthogonal box = (0 0 0) to (750 750 750)
  reading atoms ...
  140 atoms
  reading velocities ...
  140 velocities
  scanning bonds ...
  scanning angles ...
  scanning dihedrals ...
  reading bonds ...
  139 bonds
  reading angles ...
  138 angles
  reading dihedrals ...
  137 dihedrals
Finding 1-2 1-3 1-4 neighbors ...
     2 = max # of 1-2 neighbors
     2 = max # of 1-3 neighbors
     4 = max # of 1-4 neighbors
     6 = max # of special neighbors

pair_coeff * * 2.5 3.80
dielectric 80.0

thermo 100
thermo_style custom step temp pe press vol lx density
dump mymindump all custom 10 dump.min.lammpstrj id x y z

# fix mynpt all npt temp 300.0 300.0 100.0 iso 0.0 0.0 10000.0
fix mynve all nve
fix rgfix all spring/rg 650.0 30
minimize 0 0 10000 10000
Generated 0 of 9730 mixed pair_coeff terms from geometric mixing rule
Step          Temp          PotEng         Press          Volume           Lx          Density
0   702854.04      3827.2135      31.106875      4.21875e+08    750            4.6917564e-05
Averages over the last 30 of 60 rows, steps 3000 to 5870:
Temp PotEng Press Volume Lx Density
702854 -542.994 31.5524 4.21875e+08 750 4.69176e-05
Loop time of 0.762556 on 1 procs for 5870 steps with 140 atoms

Minimization stats:
  Stopping criterion = max force evaluations
  Energy initial, next-to-last, final =
  Force two-norm initial, final = 16.333375 1.9487749e-11
  Force max component initial, final = 6.6680726 2.1797018e-12
  Final line search alpha, max atom move = 1 2.1797018e-12
  Iterations, force evaluations = 5870 10000

undump mymindump
dump mydmp all custom 100 dump.lammpstrj id x y z

# replicate 3 3 4
# fix mydeform all deform 1 x final 0.0 2500.0 y final 0.0 2500.0 z final 0.0 2500.0 units box

# compute myRDF all rdf 50
# fix 1 all ave/time 100 1 100 c_myRDF[*] file tmp.rdf mode vector
fix mynve all nve
# fix mynpt all npt temp 300.0 300.0 100.0 iso 0.0 0.0 1000.0
fix mylgv all langevin 300.0 300.0 40 1321432
neigh_modify every 1 delay 5 check yes
timestep 0.005
run 100000
Generated 0 of 9730 mixed pair_coeff terms from geometric mixing rule
Step          Temp          PotEng         Press          Volume           Lx          Density
5870   702854.04     -551.81144      31.554646      4.21875e+08    750            4.6917564e-05
Averages over the last 501 of 1002 rows, steps 55900 to 105870:
Temp PotEng Press Volume Lx Density
7098.94 2730.54 -0.0695173 4.21875e+08 750 4.69176e-05
Loop time of 7.8668 on 1 procs for 100000 steps with 140 atoms

unfix rgfix
undump mydmp
dump myfindmp all custom 100 dum.fin.lammpstrj id x y z
fix mynve all nve
fix mylgv all langevin 300.0 300.0 40 1321432
neigh_modify every 1 delay 5 check yes
timestep 0.005
run 100000
Generated 0 of 9730 mixed pair_coeff terms from geometric mixing rule
Step          Temp          PotEng         Press          Volume           Lx          Density
105870   4511.854       1436.4411     -0.052622341    4.21875e+08    750            4.6917564e-05
Averages over the last 501 of 1002 rows, steps 155900 to 205870:
Temp PotEng Press Volume Lx Density
389.931 244.164 -0.15735 4.21875e+08 750 4.69176e-05
Loop time of 8.09133 on 1 procs for 100000 steps with 140 atoms

# write_data data.polymer
